Version 4
SHEET 1 1784 828
WIRE 848 -96 848 -112
WIRE 400 -80 400 -96
WIRE 1216 -48 1152 -48
WIRE 1344 -48 1344 -64
WIRE 1344 -48 1296 -48
WIRE 400 32 400 0
WIRE 1024 32 400 32
WIRE 1152 32 1152 -48
WIRE 1152 32 1104 32
WIRE 1152 64 1152 32
WIRE 1216 64 1152 64
WIRE 1344 80 1344 -48
WIRE 1344 80 1280 80
WIRE 1376 80 1344 80
WIRE 1472 80 1456 80
WIRE 1216 96 1152 96
WIRE 848 112 848 -16
WIRE 912 112 848 112
WIRE 1152 112 1152 96
WIRE 1152 112 992 112
WIRE 1472 112 1472 80
WIRE 1152 128 1152 112
WIRE -288 224 -368 224
WIRE -272 224 -288 224
WIRE 1472 224 1472 192
WIRE 1152 240 1152 208
WIRE -368 272 -368 224
WIRE -640 320 -640 304
WIRE 368 384 320 384
WIRE 368 432 368 384
WIRE 400 432 400 32
WIRE -800 448 -800 384
WIRE -736 448 -800 448
WIRE -640 448 -640 400
WIRE -640 448 -672 448
WIRE -576 448 -640 448
WIRE 816 448 768 448
WIRE 816 496 816 448
WIRE 848 496 848 112
WIRE -512 576 -512 496
WIRE -448 576 -512 576
WIRE -352 576 -368 576
WIRE -224 576 -288 576
WIRE 400 576 400 528
WIRE 448 576 448 560
WIRE 448 576 400 576
WIRE 368 592 368 528
WIRE 368 592 320 592
WIRE -512 608 -512 576
WIRE -224 608 -224 576
WIRE 400 608 400 576
WIRE 848 640 848 592
WIRE 896 640 896 624
WIRE 896 640 848 640
WIRE 816 656 816 592
WIRE 816 656 768 656
WIRE 848 672 848 640
WIRE -512 704 -512 688
WIRE -224 704 -224 688
WIRE 400 704 400 688
WIRE 848 768 848 752
FLAG -336 -48 0
FLAG -336 -128 +3V3
FLAG -240 -48 0
FLAG -240 -128 +1V8
FLAG -432 -48 0
FLAG -432 -128 +5
FLAG 400 704 0
FLAG -64 -128 0
FLAG -64 -208 -5
FLAG -368 352 0
FLAG -288 224 nono
FLAG -512 704 0
FLAG -224 704 0
FLAG -512 400 +3V3
FLAG -640 304 +3V3
FLAG 448 480 +1V8
FLAG 320 384 +1V8
FLAG 320 592 +1V8
FLAG 848 768 0
FLAG 896 544 +1V8
FLAG 768 448 +1V8
FLAG 768 656 +1V8
FLAG 1248 48 +5
FLAG 1248 112 -5
FLAG 1152 240 0
FLAG 1472 224 0
FLAG 400 -96 +1V8
FLAG 848 -112 +1V8
FLAG 1344 -144 -5
SYMBOL voltage -336 -144 R0
WINDOW 123 0 0 Left 2
WINDOW 39 0 0 Left 2
SYMATTR InstName V1
SYMATTR Value 3.3
SYMBOL voltage -240 -144 R0
WINDOW 123 0 0 Left 2
WINDOW 39 0 0 Left 2
SYMATTR InstName V2
SYMATTR Value 1.8
SYMBOL voltage -432 -144 R0
WINDOW 123 0 0 Left 2
WINDOW 39 0 0 Left 2
SYMATTR InstName V3
SYMATTR Value 5
SYMBOL res 384 -96 R0
SYMATTR InstName R5
SYMATTR Value 56
SYMBOL load2 400 608 R0
WINDOW 123 25 112 Left 2
WINDOW 39 25 140 Left 2
SYMATTR Value2 AC 1
SYMATTR SpiceLine load
SYMATTR InstName I1
SYMATTR Value SINE(5m 5m {freq} 100m)
SYMBOL voltage -64 -224 R0
WINDOW 123 0 0 Left 2
WINDOW 39 0 0 Left 2
SYMATTR InstName V5
SYMATTR Value -5
SYMBOL voltage -368 256 R0
WINDOW 123 0 0 Left 2
WINDOW 39 0 0 Left 2
SYMATTR InstName V6
SYMATTR Value 1.3
SYMBOL npn-subckt -576 400 R0
SYMATTR InstName U3
SYMATTR Value BFS17W
SYMBOL cap -672 432 R90
WINDOW 0 0 32 VBottom 2
WINDOW 3 32 32 VTop 2
SYMATTR InstName C4
SYMATTR Value 220n
SYMBOL res -656 304 R0
SYMATTR InstName R7
SYMATTR Value 3k3
SYMBOL res -528 592 R0
SYMATTR InstName R8
SYMATTR Value 50
SYMBOL res -352 560 R90
WINDOW 0 0 56 VBottom 2
WINDOW 3 32 56 VTop 2
SYMATTR InstName R9
SYMATTR Value 50
SYMBOL cap -288 560 R90
WINDOW 0 0 32 VBottom 2
WINDOW 3 32 32 VTop 2
SYMATTR InstName C5
SYMATTR Value 220n
SYMBOL res -240 592 R0
SYMATTR InstName R10
SYMATTR Value 50
SYMBOL tline 384 480 R90
SYMATTR InstName T1
SYMATTR Value Td=1n Z0=50
SYMBOL res 432 464 R0
SYMATTR InstName R11
SYMATTR Value 50
SYMBOL load2 848 672 R0
WINDOW 123 25 112 Left 2
WINDOW 39 25 140 Left 2
SYMATTR Value2 AC 1
SYMATTR SpiceLine load
SYMATTR InstName I2
SYMATTR Value SINE(5m 5m {freq} 100m 0 180)
SYMBOL tline 832 544 R90
SYMATTR InstName T2
SYMATTR Value Td=1n Z0=50
SYMBOL res 880 528 R0
SYMATTR InstName R14
SYMATTR Value 50
SYMBOL res 1312 -64 R90
WINDOW 0 0 56 VBottom 2
WINDOW 3 32 56 VTop 2
SYMATTR InstName R17
SYMATTR Value 270
SYMBOL res 1136 112 R0
SYMATTR InstName R19
SYMATTR Value 270
SYMBOL res 1472 64 R90
WINDOW 0 0 56 VBottom 2
WINDOW 3 32 56 VTop 2
SYMATTR InstName R20
SYMATTR Value 50
SYMBOL res 1456 96 R0
SYMATTR InstName R21
SYMATTR Value 50
SYMBOL res 832 -112 R0
SYMATTR InstName R1
SYMATTR Value 56
SYMBOL Opamps\\LT\\LT1396 1248 16 R0
SYMATTR InstName U1
SYMBOL res 1120 16 R90
WINDOW 0 0 56 VBottom 2
WINDOW 3 32 56 VTop 2
SYMATTR InstName R2
SYMATTR Value 270
SYMBOL res 1008 96 R90
WINDOW 0 0 56 VBottom 2
WINDOW 3 32 56 VTop 2
SYMATTR InstName R3
SYMATTR Value 270
SYMBOL res 1328 -160 R0
SYMATTR InstName R4
SYMATTR Value 1k8
TEXT -280 48 Left 2 !.tran {100m+10/freq} startup
TEXT -280 80 Left 2 !.lib bipolar.lib
TEXT -312 96 Left 2 !;ac dec 500 10 1G
TEXT -400 -8 Left 2 !;step param freq list 200 2k 20k 200k 2Meg 20Meg 200Meg
TEXT -376 160 Left 2 !.param freq 200Meg
TEXT -376 136 Left 2 !.lib LMV324.sub
TEXT -8 384 Left 2 !.lib LM7171.sub
