Version 4
SHEET 1 1784 828
WIRE 848 -96 848 -112
WIRE 400 -80 400 -96
WIRE 1216 -48 1152 -48
WIRE 1328 -48 1328 -80
WIRE 1328 -48 1296 -48
WIRE 400 32 400 0
WIRE 1024 32 400 32
WIRE 1152 32 1152 -48
WIRE 1152 32 1104 32
WIRE 1152 64 1152 32
WIRE 1216 64 1152 64
WIRE 1328 80 1328 -48
WIRE 1328 80 1280 80
WIRE 1376 80 1328 80
WIRE 1472 80 1456 80
WIRE 1216 96 1152 96
WIRE 848 112 848 -16
WIRE 912 112 848 112
WIRE 1152 112 1152 96
WIRE 1152 112 992 112
WIRE 1472 112 1472 80
WIRE 1152 128 1152 112
WIRE -288 224 -368 224
WIRE -272 224 -288 224
WIRE 1472 224 1472 192
WIRE 1152 240 1152 208
WIRE 400 256 400 32
WIRE 672 256 400 256
WIRE -368 272 -368 224
WIRE 672 288 672 256
WIRE 704 288 848 112
WIRE 336 400 336 384
WIRE 400 400 336 400
WIRE 672 400 672 384
WIRE 672 400 400 400
WIRE 400 432 400 400
WIRE 848 464 704 384
WIRE 896 464 896 448
WIRE 896 464 848 464
WIRE 848 496 848 464
WIRE -64 512 -352 512
WIRE -352 528 -352 512
WIRE 400 528 400 512
WIRE 848 592 848 576
WIRE -64 656 -352 656
WIRE -352 672 -352 656
FLAG -336 -48 0
FLAG -336 -128 +3V3
FLAG -240 -48 0
FLAG -240 -128 +1V8
FLAG -352 608 0
FLAG 400 528 0
FLAG -368 352 0
FLAG -288 224 nono
FLAG 336 304 +1V8
FLAG 848 592 0
FLAG 896 368 +1V8
FLAG 1248 48 +5
FLAG 1248 112 -5
FLAG 1152 240 0
FLAG 1472 224 0
FLAG 400 -96 +1V8
FLAG 848 -112 +1V8
FLAG 1328 -160 -5
FLAG 1280 112 +5
FLAG -64 512 +5
FLAG -352 752 0
FLAG -64 656 -5
SYMBOL voltage -336 -144 R0
WINDOW 123 0 0 Left 2
WINDOW 39 0 0 Left 2
SYMATTR InstName V1
SYMATTR Value 3.3
SYMBOL voltage -240 -144 R0
WINDOW 123 0 0 Left 2
WINDOW 39 0 0 Left 2
SYMATTR InstName V2
SYMATTR Value 1.8
SYMBOL voltage -352 512 R0
WINDOW 123 0 0 Left 2
WINDOW 39 0 0 Left 2
SYMATTR InstName V3
SYMATTR Value 5
SYMBOL res 384 -96 R0
SYMATTR InstName R5
SYMATTR Value 53.6
SYMBOL load2 400 432 R0
WINDOW 123 25 112 Left 2
WINDOW 39 25 140 Left 2
SYMATTR Value2 AC 1
SYMATTR SpiceLine load
SYMATTR InstName I1
SYMATTR Value SINE(5m 5m {freq})
SYMBOL voltage -368 256 R0
WINDOW 123 0 0 Left 2
WINDOW 39 0 0 Left 2
SYMATTR InstName V6
SYMATTR Value 1.3
SYMBOL res 320 288 R0
SYMATTR InstName R11
SYMATTR Value 49.9
SYMBOL load2 848 496 R0
WINDOW 123 25 112 Left 2
WINDOW 39 25 140 Left 2
SYMATTR Value2 AC 1 180
SYMATTR SpiceLine load
SYMATTR InstName I2
SYMATTR Value SINE(5m 5m {freq} 0 0 180)
SYMBOL tline 688 336 R90
SYMATTR InstName T2
SYMATTR Value Td=1n Z0=100
SYMBOL res 880 352 R0
SYMATTR InstName R14
SYMATTR Value 49.9
SYMBOL res 1312 -64 R90
WINDOW 0 0 56 VBottom 2
WINDOW 3 32 56 VTop 2
SYMATTR InstName R17
SYMATTR Value 360
SYMBOL res 1136 112 R0
SYMATTR InstName R19
SYMATTR Value 360
SYMBOL res 1472 64 R90
WINDOW 0 0 56 VBottom 2
WINDOW 3 32 56 VTop 2
SYMATTR InstName R20
SYMATTR Value 50
SYMBOL res 1456 96 R0
SYMATTR InstName R21
SYMATTR Value 50
SYMBOL res 832 -112 R0
SYMATTR InstName R1
SYMATTR Value 53.6
SYMBOL res 1120 16 R90
WINDOW 0 0 56 VBottom 2
WINDOW 3 32 56 VTop 2
SYMATTR InstName R2
SYMATTR Value 360
SYMBOL res 1008 96 R90
WINDOW 0 0 56 VBottom 2
WINDOW 3 32 56 VTop 2
SYMATTR InstName R3
SYMATTR Value 360
SYMBOL res 1312 -176 R0
SYMATTR InstName R4
SYMATTR Value 2k2
SYMBOL Opamps\\TI\\LMH6720 1248 16 R0
SYMATTR InstName U1
SYMBOL voltage -352 656 R0
WINDOW 123 0 0 Left 2
WINDOW 39 0 0 Left 2
SYMATTR InstName V4
SYMATTR Value -5
TEXT -280 48 Left 2 !.tran {10/freq} uic
TEXT -280 80 Left 2 !.lib bipolar.lib
TEXT -312 96 Left 2 !;ac dec 500 10 1G
TEXT -400 -8 Left 2 !;step param freq list 200 2k 20k 200k 2Meg 20Meg 200Meg
TEXT -376 160 Left 2 !.param freq 200Meg
TEXT -376 136 Left 2 !.lib LMV324.sub
TEXT -8 384 Left 2 !.lib LM7171.sub
TEXT 608 168 Left 2 !.lib LMH6720.sub
TEXT -96 424 Left 2 !.lib diode.lib
